8
Coordinates from ORCA-job protoniert
  C   0.00014211218328     -0.00073051302397     -0.00008884369875
  H   -0.81522010350570     -0.70914281058246      0.19731555630436
  H   0.84070873834823     -0.26781667004086      0.65382776759290
  H   0.32191426353280     -0.13352300863757     -1.04078814692109
  C   -0.44868262973170      1.40484820540323      0.25212192960774
  O   -0.53828588056180      2.33452145417141     -0.52958491003954
  O   -0.80506418526478      1.67505166788798      1.53126319465433
  H   -1.07757231500033      2.58422167482225      1.60714345250003

E=-32.592475724767
